PCB_Project1
*SPICE Netlist generated by Advanced Sim server on 12/2/2013 3:01:31 AM

*Schematic Netlist:


*Selected Circuit Analyses:
.TRAN 2E-8 5E-6 0 2E-8
.OP

.END
